dss/import/capas-pablo/Formato-interfaz/cooperativa/Line.dss
New Line.idlinea145_idtramos_1 bus1=23 bus2=80 length=40.575 units=0 r1=0.000952086 r0=0.00109752 x1=0.00033682 x0=0.00172989 c1=0.0109851 c0=0.0035978200000000003 enabled=true phases=3
New Line.idlinea146_idtramos_2 bus1=23 bus2=1 length=12.926 units=0 r1=0.000952086 r0=0.00109752 x1=0.00033682 x0=0.00172989 c1=0.0109851 c0=0.0035978200000000003 enabled=true phases=3
New Line.idlinea146_idtramos_3 bus1=1 bus2=2 length=41.476 units=0 r1=0.000952086 r0=0.00109752 x1=0.00033682 x0=0.00172989 c1=0.0109851 c0=0.0035978200000000003 enabled=true phases=3
New Line.idlinea147_idtramos_4 bus1=3 bus2=88 length=10.615 units=0 r1=0.000352234 r0=0.000497666 x1=0.000305055 x0=0.00169813 c1=0.012216100000000002 c0=0.0037201300000000003 enabled=true phases=3
New Line.idlinea148_idtramos_5 bus1=21 bus2=24 length=38.666 units=0 r1=0.000952086 r0=0.00109752 x1=0.00033682 x0=0.00172989 c1=0.0109851 c0=0.0035978200000000003 enabled=true phases=3
New Line.idlinea149_idtramos_6 bus1=37 bus2=4 length=28.564 units=0 r1=0.000952086 r0=0.00109752 x1=0.00033682 x0=0.00172989 c1=0.0109851 c0=0.0035978200000000003 enabled=true phases=3
New Line.idlinea150_idtramos_7 bus1=40 bus2=102 length=67.164 units=0 r1=0.000952086 r0=0.00109752 x1=0.00033682 x0=0.00172989 c1=0.0109851 c0=0.0035978200000000003 enabled=true phases=3
New Line.idlinea151_idtramos_8 bus1=104 bus2=43 length=8.713 units=0 r1=0.000952086 r0=0.00109752 x1=0.00033682 x0=0.00172989 c1=0.0109851 c0=0.0035978200000000003 enabled=true phases=3
New Line.idlinea152_idtramos_9 bus1=104 bus2=5 length=11.284 units=0 r1=0.000952086 r0=0.00109752 x1=0.00033682 x0=0.00172989 c1=0.0109851 c0=0.0035978200000000003 enabled=true phases=3
New Line.idlinea155_idtramos_10 bus1=23 bus2=26 length=185.044 units=0 r1=0.000275299 r0=0.000420731 x1=0.000297103 x0=0.00169017 c1=0.012569200000000003 c0=0.0037520900000000005 enabled=true phases=3
New Line.idlinea173_idtramos_11 bus1=6 bus2=46 length=79.298 units=0 r1=0.000952086 r0=0.00109752 x1=0.00033682 x0=0.00172989 c1=0.0109851 c0=0.0035978200000000003 enabled=true phases=3
New Line.idlinea174_idtramos_12 bus1=7 bus2=50 length=60.317 units=0 r1=0.000952086 r0=0.00109752 x1=0.00033682 x0=0.00172989 c1=0.0109851 c0=0.0035978200000000003 enabled=true phases=3
New Line.idlinea175_idtramos_13 bus1=49 bus2=50 length=35.543 units=0 r1=0.000952086 r0=0.00109752 x1=0.00033682 x0=0.00172989 c1=0.0109851 c0=0.0035978200000000003 enabled=true phases=3
New Line.idlinea160_idtramos_14 bus1=48 bus2=8 length=222.605 units=0 r1=0.000952086 r0=0.00109752 x1=0.00033682 x0=0.00172989 c1=0.0109851 c0=0.0035978200000000003 enabled=true phases=3
New Line.idlinea160_idtramos_15 bus1=8 bus2=65 length=16.407 units=0 r1=0.000952086 r0=0.00109752 x1=0.00033682 x0=0.00172989 c1=0.0109851 c0=0.0035978200000000003 enabled=true phases=3
New Line.idlinea162_idtramos_16 bus1=73 bus2=84 length=362.756 units=0 r1=0.000952086 r0=0.00109752 x1=0.00033682 x0=0.00172989 c1=0.0109851 c0=0.0035978200000000003 enabled=true phases=3
New Line.idlinea163_idtramos_17 bus1=72 bus2=74 length=22.841 units=0 r1=0.000952086 r0=0.00109752 x1=0.00033682 x0=0.00172989 c1=0.0109851 c0=0.0035978200000000003 enabled=true phases=3
New Line.idlinea164_idtramos_18 bus1=68 bus2=69 length=22.366 units=0 r1=0.000952086 r0=0.00109752 x1=0.00033682 x0=0.00172989 c1=0.0109851 c0=0.0035978200000000003 enabled=true phases=3
New Line.idlinea165_idtramos_19 bus1=60 bus2=61 length=15.737 units=0 r1=0.00209004 r0=0.00223547 x1=0.000361884 x0=0.00175495 c1=0.0101771 c0=0.0035069400000000005 enabled=true phases=3
New Line.idlinea166_idtramos_20 bus1=55 bus2=56 length=20.291 units=0 r1=0.000952086 r0=0.00109752 x1=0.00033682 x0=0.00172989 c1=0.0109851 c0=0.0035978200000000003 enabled=true phases=3
New Line.idlinea168_idtramos_21 bus1=51 bus2=9 length=114.039 units=0 r1=0.000663124 r0=0.000808557 x1=0.000325502 x0=0.00171857 c1=0.011393900000000002 c0=0.0036404500000000004 enabled=true phases=3
New Line.idlinea168_idtramos_22 bus1=9 bus2=53 length=170.108 units=0 r1=0.000663124 r0=0.000808557 x1=0.000325502 x0=0.00171857 c1=0.011393900000000002 c0=0.0036404500000000004 enabled=true phases=3
New Line.idlinea170_idtramos_23 bus1=54 bus2=55 length=193.189 units=0 r1=0.00131006 r0=0.0014555 x1=0.000346644 x0=0.00173971 c1=0.010653400000000002 c0=0.00356164 enabled=true phases=3
New Line.idlinea171_idtramos_24 bus1=46 bus2=10 length=80.513 units=0 r1=0.000952086 r0=0.00109752 x1=0.00033682 x0=0.00172989 c1=0.0109851 c0=0.0035978200000000003 enabled=true phases=3
New Line.idlinea172_idtramos_25 bus1=31 bus2=6 length=22.212 units=0 r1=0.000952086 r0=0.00109752 x1=0.00033682 x0=0.00172989 c1=0.0109851 c0=0.0035978200000000003 enabled=true phases=3
New Line.idlinea177_idtramos_26 bus1=26 bus2=11 length=101.667 units=0 r1=0.000275299 r0=0.000420731 x1=0.000297103 x0=0.00169017 c1=0.012569200000000003 c0=0.0037520900000000005 enabled=true phases=3
New Line.idlinea178_idtramos_27 bus1=11 bus2=28 length=108.454 units=0 r1=0.00048417 r0=0.000629602 x1=0.000315326 x0=0.0017084 c1=0.0117887 c0=0.00367967 enabled=true phases=3
New Line.idlinea179_idtramos_28 bus1=33 bus2=34 length=1141.512 units=0 r1=0.000663124 r0=0.000808557 x1=0.000325502 x0=0.00171857 c1=0.011393900000000002 c0=0.0036404500000000004 enabled=true phases=3
New Line.idlinea167_idtramos_29 bus1=63 bus2=12 length=19.284 units=0 r1=0.00131006 r0=0.0014555 x1=0.000346644 x0=0.00173971 c1=0.010653400000000002 c0=0.00356164 enabled=true phases=3
New Line.idlinea169_idtramos_30 bus1=13 bus2=51 length=276.091 units=0 r1=0.00048417 r0=0.000629602 x1=0.000315326 x0=0.0017084 c1=0.0117887 c0=0.00367967 enabled=true phases=3
New Line.idlinea286_idtramos_31 bus1=84 bus2=14 length=23.774 units=0 r1=0.000952086 r0=0.00109752 x1=0.00033682 x0=0.00172989 c1=0.0109851 c0=0.0035978200000000003 enabled=true phases=3
New Line.idlinea286_idtramos_32 bus1=14 bus2=15 length=10.572 units=0 r1=0.000952086 r0=0.00109752 x1=0.00033682 x0=0.00172989 c1=0.0109851 c0=0.0035978200000000003 enabled=true phases=3
New Line.idlinea286_idtramos_33 bus1=15 bus2=76 length=152.001 units=0 r1=0.000952086 r0=0.00109752 x1=0.00033682 x0=0.00172989 c1=0.0109851 c0=0.0035978200000000003 enabled=true phases=3
New Line.idlinea290_idtramos_34 bus1=90 bus2=94 length=5.009 units=0 r1=0.000352234 r0=0.000497666 x1=0.000305055 x0=0.00169813 c1=0.012216100000000002 c0=0.0037201300000000003 enabled=true phases=3
New Line.idlinea161_idtramos_35 bus1=67 bus2=16 length=20.68 units=0 r1=0.000952086 r0=0.00109752 x1=0.00033682 x0=0.00172989 c1=0.0109851 c0=0.0035978200000000003 enabled=true phases=3
New Line.idlinea161_idtramos_36 bus1=16 bus2=17 length=15.806 units=0 r1=0.000952086 r0=0.00109752 x1=0.00033682 x0=0.00172989 c1=0.0109851 c0=0.0035978200000000003 enabled=true phases=3
New Line.idlinea161_idtramos_37 bus1=17 bus2=68 length=116.776 units=0 r1=0.000952086 r0=0.00109752 x1=0.00033682 x0=0.00172989 c1=0.0109851 c0=0.0035978200000000003 enabled=true phases=3
New Line.idlinea710_idtramos_38 bus1=89 bus2=18 length=12.42 units=0 r1=0.000352234 r0=0.000497666 x1=0.000305055 x0=0.00169813 c1=0.012216100000000002 c0=0.0037201300000000003 enabled=true phases=3
New Line.idlinea710_idtramos_39 bus1=18 bus2=19 length=21.094 units=0 r1=0.000352234 r0=0.000497666 x1=0.000305055 x0=0.00169813 c1=0.012216100000000002 c0=0.0037201300000000003 enabled=true phases=3
New Line.idlinea710_idtramos_40 bus1=19 bus2=90 length=4.716 units=0 r1=0.000352234 r0=0.000497666 x1=0.000305055 x0=0.00169813 c1=0.012216100000000002 c0=0.0037201300000000003 enabled=true phases=3
New Line.idlinea712_idtramos_41 bus1=93 bus2=78 length=155.666 units=0 r1=0.000352234 r0=0.000497666 x1=0.000305055 x0=0.00169813 c1=0.012216100000000002 c0=0.0037201300000000003 enabled=true phases=3
New Line.idlinea713_idtramos_42 bus1=79 bus2=20 length=40.975 units=0 r1=0.000352234 r0=0.000497666 x1=0.000305055 x0=0.00169813 c1=0.012216100000000002 c0=0.0037201300000000003 enabled=true phases=3
New Line.idlinea713_idtramos_43 bus1=20 bus2=21 length=26.842 units=0 r1=0.000352234 r0=0.000497666 x1=0.000305055 x0=0.00169813 c1=0.012216100000000002 c0=0.0037201300000000003 enabled=true phases=3
New Line.idlinea714_idtramos_44 bus1=21 bus2=22 length=41.536 units=0 r1=0.000352234 r0=0.000497666 x1=0.000305055 x0=0.00169813 c1=0.012216100000000002 c0=0.0037201300000000003 enabled=true phases=3
New Line.idlinea714_idtramos_45 bus1=22 bus2=23 length=120.432 units=0 r1=0.000352234 r0=0.000497666 x1=0.000305055 x0=0.00169813 c1=0.012216100000000002 c0=0.0037201300000000003 enabled=true phases=3
New Line.idlinea715_idtramos_46 bus1=24 bus2=25 length=162.672 units=0 r1=0.000952086 r0=0.00109752 x1=0.00033682 x0=0.00172989 c1=0.0109851 c0=0.0035978200000000003 enabled=true phases=3
New Line.idlinea716_idtramos_47 bus1=26 bus2=27 length=3.225 units=0 r1=0.000275299 r0=0.000420731 x1=0.000297103 x0=0.00169017 c1=0.012569200000000003 c0=0.0037520900000000005 enabled=true phases=3
New Line.idlinea718_idtramos_48 bus1=28 bus2=29 length=117.489 units=0 r1=0.00048417 r0=0.000629602 x1=0.000315326 x0=0.0017084 c1=0.0117887 c0=0.00367967 enabled=true phases=3
New Line.idlinea719_idtramos_49 bus1=29 bus2=30 length=136.059 units=0 r1=0.00048417 r0=0.000629602 x1=0.000315326 x0=0.0017084 c1=0.0117887 c0=0.00367967 enabled=true phases=3
New Line.idlinea719_idtramos_50 bus1=30 bus2=31 length=103.104 units=0 r1=0.00048417 r0=0.000629602 x1=0.000315326 x0=0.0017084 c1=0.0117887 c0=0.00367967 enabled=true phases=3
New Line.idlinea720_idtramos_51 bus1=31 bus2=32 length=89.533 units=0 r1=0.00048417 r0=0.000629602 x1=0.000315326 x0=0.0017084 c1=0.0117887 c0=0.00367967 enabled=true phases=3
New Line.idlinea721_idtramos_52 bus1=32 bus2=33 length=136.284 units=0 r1=0.00048417 r0=0.000629602 x1=0.000315326 x0=0.0017084 c1=0.0117887 c0=0.00367967 enabled=true phases=3
New Line.idlinea722_idtramos_53 bus1=34 bus2=35 length=117.111 units=0 r1=0.000663124 r0=0.000808557 x1=0.000325502 x0=0.00171857 c1=0.011393900000000002 c0=0.0036404500000000004 enabled=true phases=3
New Line.idlinea723_idtramos_54 bus1=25 bus2=36 length=145.713 units=0 r1=0.000952086 r0=0.00109752 x1=0.00033682 x0=0.00172989 c1=0.0109851 c0=0.0035978200000000003 enabled=true phases=3
New Line.idlinea724_idtramos_55 bus1=37 bus2=38 length=216.664 units=0 r1=0.000952086 r0=0.00109752 x1=0.00033682 x0=0.00172989 c1=0.0109851 c0=0.0035978200000000003 enabled=true phases=3
New Line.idlinea725_idtramos_56 bus1=36 bus2=37 length=81.082 units=0 r1=0.000952086 r0=0.00109752 x1=0.00033682 x0=0.00172989 c1=0.0109851 c0=0.0035978200000000003 enabled=true phases=3
New Line.idlinea726_idtramos_57 bus1=38 bus2=39 length=349.016 units=0 r1=0.000952086 r0=0.00109752 x1=0.00033682 x0=0.00172989 c1=0.0109851 c0=0.0035978200000000003 enabled=true phases=3
New Line.idlinea727_idtramos_58 bus1=39 bus2=40 length=30.731 units=0 r1=0.000952086 r0=0.00109752 x1=0.00033682 x0=0.00172989 c1=0.0109851 c0=0.0035978200000000003 enabled=true phases=3
New Line.idlinea728_idtramos_59 bus1=40 bus2=41 length=12.44 units=0 r1=0.000952086 r0=0.00109752 x1=0.00033682 x0=0.00172989 c1=0.0109851 c0=0.0035978200000000003 enabled=true phases=3
New Line.idlinea729_idtramos_60 bus1=104 bus2=42 length=23.496 units=0 r1=0.000952086 r0=0.00109752 x1=0.00033682 x0=0.00172989 c1=0.0109851 c0=0.0035978200000000003 enabled=true phases=3
New Line.idlinea730_idtramos_61 bus1=43 bus2=44 length=7.992 units=0 r1=0.000952086 r0=0.00109752 x1=0.00033682 x0=0.00172989 c1=0.0109851 c0=0.0035978200000000003 enabled=true phases=3
New Line.idlinea739_idtramos_62 bus1=45 bus2=105 length=62.183 units=0 r1=0.00048417 r0=0.000629602 x1=0.000315326 x0=0.0017084 c1=0.0117887 c0=0.00367967 enabled=true phases=3
New Line.idlinea740_idtramos_63 bus1=46 bus2=47 length=109.797 units=0 r1=0.000952086 r0=0.00109752 x1=0.00033682 x0=0.00172989 c1=0.0109851 c0=0.0035978200000000003 enabled=true phases=3
New Line.idlinea741_idtramos_64 bus1=47 bus2=48 length=16.795 units=0 r1=0.000952086 r0=0.00109752 x1=0.00033682 x0=0.00172989 c1=0.0109851 c0=0.0035978200000000003 enabled=true phases=3
New Line.idlinea742_idtramos_65 bus1=48 bus2=49 length=81.225 units=0 r1=0.000952086 r0=0.00109752 x1=0.00033682 x0=0.00172989 c1=0.0109851 c0=0.0035978200000000003 enabled=true phases=3
New Line.idlinea743_idtramos_66 bus1=50 bus2=51 length=114.746 units=0 r1=0.000952086 r0=0.00109752 x1=0.00033682 x0=0.00172989 c1=0.0109851 c0=0.0035978200000000003 enabled=true phases=3
New Line.idlinea744_idtramos_67 bus1=51 bus2=52 length=23.296 units=0 r1=0.000952086 r0=0.00109752 x1=0.00033682 x0=0.00172989 c1=0.0109851 c0=0.0035978200000000003 enabled=true phases=3
New Line.idlinea745_idtramos_68 bus1=53 bus2=54 length=11.732 units=0 r1=0.000663124 r0=0.000808557 x1=0.000325502 x0=0.00171857 c1=0.011393900000000002 c0=0.0036404500000000004 enabled=true phases=3
New Line.idlinea746_idtramos_69 bus1=55 bus2=58 length=23.717 units=0 r1=0.00131006 r0=0.0014555 x1=0.000346644 x0=0.00173971 c1=0.010653400000000002 c0=0.00356164 enabled=true phases=3
New Line.idlinea747_idtramos_70 bus1=56 bus2=57 length=261.165 units=0 r1=0.000952086 r0=0.00109752 x1=0.00033682 x0=0.00172989 c1=0.0109851 c0=0.0035978200000000003 enabled=true phases=3
New Line.idlinea748_idtramos_71 bus1=58 bus2=59 length=36.266 units=0 r1=0.00131006 r0=0.0014555 x1=0.000346644 x0=0.00173971 c1=0.010653400000000002 c0=0.00356164 enabled=true phases=3
New Line.idlinea749_idtramos_72 bus1=60 bus2=63 length=9.709 units=0 r1=0.00131006 r0=0.0014555 x1=0.000346644 x0=0.00173971 c1=0.010653400000000002 c0=0.00356164 enabled=true phases=3
New Line.idlinea750_idtramos_73 bus1=61 bus2=62 length=264.579 units=0 r1=0.000952086 r0=0.00109752 x1=0.00033682 x0=0.00172989 c1=0.0109851 c0=0.0035978200000000003 enabled=true phases=3
New Line.idlinea751_idtramos_74 bus1=63 bus2=64 length=275.066 units=0 r1=0.00131006 r0=0.0014555 x1=0.000346644 x0=0.00173971 c1=0.010653400000000002 c0=0.00356164 enabled=true phases=3
New Line.idlinea752_idtramos_75 bus1=65 bus2=66 length=36.386 units=0 r1=0.000952086 r0=0.00109752 x1=0.00033682 x0=0.00172989 c1=0.0109851 c0=0.0035978200000000003 enabled=true phases=3
New Line.idlinea752_idtramos_76 bus1=66 bus2=67 length=19.17 units=0 r1=0.000952086 r0=0.00109752 x1=0.00033682 x0=0.00172989 c1=0.0109851 c0=0.0035978200000000003 enabled=true phases=3
New Line.idlinea753_idtramos_77 bus1=68 bus2=72 length=25.176 units=0 r1=0.000952086 r0=0.00109752 x1=0.00033682 x0=0.00172989 c1=0.0109851 c0=0.0035978200000000003 enabled=true phases=3
New Line.idlinea754_idtramos_78 bus1=69 bus2=70 length=56.014 units=0 r1=0.000952086 r0=0.00109752 x1=0.00033682 x0=0.00172989 c1=0.0109851 c0=0.0035978200000000003 enabled=true phases=3
New Line.idlinea754_idtramos_79 bus1=70 bus2=71 length=70.949 units=0 r1=0.000952086 r0=0.00109752 x1=0.00033682 x0=0.00172989 c1=0.0109851 c0=0.0035978200000000003 enabled=true phases=3
New Line.idlinea755_idtramos_80 bus1=72 bus2=73 length=42.178 units=0 r1=0.000952086 r0=0.00109752 x1=0.00033682 x0=0.00172989 c1=0.0109851 c0=0.0035978200000000003 enabled=true phases=3
New Line.idlinea756_idtramos_81 bus1=74 bus2=75 length=137.521 units=0 r1=0.000952086 r0=0.00109752 x1=0.00033682 x0=0.00172989 c1=0.0109851 c0=0.0035978200000000003 enabled=true phases=3
New Line.idlinea758_idtramos_82 bus1=76 bus2=77 length=89.047 units=0 r1=0.000952086 r0=0.00109752 x1=0.00033682 x0=0.00172989 c1=0.0109851 c0=0.0035978200000000003 enabled=true phases=3
New Line.idlinea899_idtramos_83 bus1=78 bus2=79 length=22.579 units=0 r1=0.000352234 r0=0.000497666 x1=0.000305055 x0=0.00169813 c1=0.012216100000000002 c0=0.0037201300000000003 enabled=true phases=3
New Line.idlinea908_idtramos_84 bus1=80 bus2=81 length=207.223 units=0 r1=0.000952086 r0=0.00109752 x1=0.00033682 x0=0.00172989 c1=0.0109851 c0=0.0035978200000000003 enabled=true phases=3
New Line.idlinea909_idtramos_85 bus1=82 bus2=83 length=170.6 units=0 r1=0.000952086 r0=0.00109752 x1=0.00033682 x0=0.00172989 c1=0.0109851 c0=0.0035978200000000003 enabled=true phases=3
New Line.idlinea923_idtramos_86 bus1=84 bus2=85 length=32.803 units=0 r1=0.000952086 r0=0.00109752 x1=0.00033682 x0=0.00172989 c1=0.0109851 c0=0.0035978200000000003 enabled=true phases=3
New Line.idlinea923_idtramos_87 bus1=85 bus2=86 length=39.723 units=0 r1=0.000952086 r0=0.00109752 x1=0.00033682 x0=0.00172989 c1=0.0109851 c0=0.0035978200000000003 enabled=true phases=3
New Line.idlinea923_idtramos_88 bus1=86 bus2=87 length=39.313 units=0 r1=0.000952086 r0=0.00109752 x1=0.00033682 x0=0.00172989 c1=0.0109851 c0=0.0035978200000000003 enabled=true phases=3
New Line.idlinea939_idtramos_89 bus1=88 bus2=89 length=26.829 units=0 r1=0.000352234 r0=0.000497666 x1=0.000305055 x0=0.00169813 c1=0.012216100000000002 c0=0.0037201300000000003 enabled=true phases=3
New Line.idlinea900_idtramos_90 bus1=78 bus2=82 length=26.248 units=0 r1=0.000952086 r0=0.00109752 x1=0.00033682 x0=0.00172989 c1=0.0109851 c0=0.0035978200000000003 enabled=true phases=3
New Line.idlinea891_idtramos_91 bus1=90 bus2=91 length=20.697 units=0 r1=0.000352234 r0=0.000497666 x1=0.000305055 x0=0.00169813 c1=0.012216100000000002 c0=0.0037201300000000003 enabled=true phases=3
New Line.idlinea891_idtramos_92 bus1=91 bus2=92 length=32.129 units=0 r1=0.000352234 r0=0.000497666 x1=0.000305055 x0=0.00169813 c1=0.012216100000000002 c0=0.0037201300000000003 enabled=true phases=3
New Line.idlinea891_idtramos_93 bus1=92 bus2=93 length=20.725 units=0 r1=0.000352234 r0=0.000497666 x1=0.000305055 x0=0.00169813 c1=0.012216100000000002 c0=0.0037201300000000003 enabled=true phases=3
New Line.idlinea897_idtramos_94 bus1=94 bus2=95 length=7.24 units=0 r1=0.000352234 r0=0.000497666 x1=0.000305055 x0=0.00169813 c1=0.012216100000000002 c0=0.0037201300000000003 enabled=true phases=3
New Line.idlinea954_idtramos_95 bus1=59 bus2=60 length=81.889 units=0 r1=0.00131006 r0=0.0014555 x1=0.000346644 x0=0.00173971 c1=0.010653400000000002 c0=0.00356164 enabled=true phases=3
New Line.idlinea955_idtramos_96 bus1=59 bus2=96 length=45.3 units=0 r1=0.000352234 r0=0.000497666 x1=0.000305055 x0=0.00169813 c1=0.012216100000000002 c0=0.0037201300000000003 enabled=true phases=3
New Line.idlinea956_idtramos_97 bus1=96 bus2=97 length=121.09 units=0 r1=0.000352234 r0=0.000497666 x1=0.000305055 x0=0.00169813 c1=0.012216100000000002 c0=0.0037201300000000003 enabled=true phases=3
New Line.idlinea956_idtramos_98 bus1=97 bus2=98 length=186.876 units=0 r1=0.000352234 r0=0.000497666 x1=0.000305055 x0=0.00169813 c1=0.012216100000000002 c0=0.0037201300000000003 enabled=true phases=3
New Line.idlinea956_idtramos_99 bus1=98 bus2=99 length=235.189 units=0 r1=0.000352234 r0=0.000497666 x1=0.000305055 x0=0.00169813 c1=0.012216100000000002 c0=0.0037201300000000003 enabled=true phases=3
New Line.idlinea957_idtramos_100 bus1=99 bus2=100 length=270.36 units=0 r1=0.000352234 r0=0.000497666 x1=0.000305055 x0=0.00169813 c1=0.012216100000000002 c0=0.0037201300000000003 enabled=true phases=3
New Line.idlinea957_idtramos_101 bus1=100 bus2=101 length=30.08 units=0 r1=0.000352234 r0=0.000497666 x1=0.000305055 x0=0.00169813 c1=0.012216100000000002 c0=0.0037201300000000003 enabled=true phases=3
New Line.idlinea961_idtramos_102 bus1=102 bus2=103 length=10.848 units=0 r1=0.000952086 r0=0.00109752 x1=0.00033682 x0=0.00172989 c1=0.0109851 c0=0.0035978200000000003 enabled=true phases=3
New Line.idlinea961_idtramos_103 bus1=103 bus2=104 length=166.22 units=0 r1=0.000952086 r0=0.00109752 x1=0.00033682 x0=0.00172989 c1=0.0109851 c0=0.0035978200000000003 enabled=true phases=3
New Line.idlinea991_idtramos_104 bus1=62 bus2=105 length=273.675 units=0 r1=0.000663124 r0=0.000808557 x1=0.000325502 x0=0.00171857 c1=0.011393900000000002 c0=0.0036404500000000004 enabled=true phases=3
New Line.idlinea908_idtramos_105 bus1=81 bus2=106 length=117.197 units=0 r1=0.000663124 r0=0.000808557 x1=0.000325502 x0=0.00171857 c1=0.011393900000000002 c0=0.0036404500000000004 enabled=true phases=3
